success
success
success
success
success
success
success
success
success
success
success
success
success
success
success
success
success
success
success
success
success
success
success
success
success
R34484WO KFC85HBU 4.8
success
0KWQOZZY S85TU4WI 26.3
775U0TUG 9CI7GJI9 DZTGPSSE 13
S85TU4WI 775U0TUG 9CI7GJI9 R34484WO 18.5
success
9CI7GJI9 KFC85HBU
0KWQOZZY S85TU4WI 26.3
0KWQOZZY S85TU4WI 26.3
0KWQOZZY S85TU4WI 26.3
