success
success
success
success
success
success
success
success
success
success
success
success
success
success
success
success
success
success
success
success
success
success
success
success
success
A1ETMT3D BMYSVZ4W 40.5
success
YZFLCNIM BMYSVZ4W XRH1UI0K
MTJHW160 TB19JWIY
XRH1UI0K
YZFLCNIM BMYSVZ4W XRH1UI0K
success
A1ETMT3D 0ZK2F8W3 19.6
success
BMYSVZ4W XRH1UI0K A1ETMT3D 8.8
